examples/feeders/22_SE001_1/009_segmentoRamalBT.dss
New Line.RBT_103979 phases=2 bus1=BT244811.1.4 bus2=UC103979.1.4 linecode=105_2 length=0.03 units=km
New Line.RBT_122515 phases=3 bus1=ET1_1277.1.2.4 bus2=UC122515.1.2.4 linecode=83_3 length=0.013 units=km
New Line.RBT_129408 phases=2 bus1=BT244811.1.4 bus2=UC129408.1.4 linecode=50_2 length=0.006 units=km
New Line.RBT_135112 phases=2 bus1=BT244801.1.4 bus2=UC135112.1.4 linecode=108_2 length=0.022 units=km
New Line.RBT_1713676 phases=2 bus1=BT246731.1.4 bus2=UC1713676.1.4 linecode=105_2 length=0.03 units=km
New Line.RBT_2204025 phases=2 bus1=BT249741.1.4 bus2=UC2204025.1.4 linecode=50_2 length=0.03 units=km
New Line.RBT_2206506 phases=2 bus1=BT246701.2.4 bus2=UC2206506.2.4 linecode=50_2 length=0.023 units=km
New Line.RBT_2233461 phases=2 bus1=BT246701.1.4 bus2=UC2233461.1.4 linecode=50_2 length=0.01372 units=km
New Line.RBT_2234580 phases=3 bus1=BT249751.1.2.4 bus2=UC2234580.1.2.4 linecode=83_3 length=0.03 units=km
New Line.RBT_2221098 phases=2 bus1=ET1_2803.1.4 bus2=UC2221098.1.4 linecode=50_2 length=0.02415 units=km
New Line.RBT_2206487 phases=3 bus1=ET1_3554.1.2.4 bus2=UC2206487.1.2.4 linecode=83_3 length=0.018 units=km
New Line.RBT_2206504 phases=3 bus1=BT246591.1.2.4 bus2=UC2206504.1.2.4 linecode=83_3 length=0.022 units=km
New Line.RBT_2220773 phases=2 bus1=BT246571.1.4 bus2=UC2220773.1.4 linecode=50_2 length=0.012 units=km
New Line.RBT_2226792 phases=2 bus1=BT246591.2.4 bus2=UC2226792.2.4 linecode=50_2 length=0.03 units=km
New Line.RBT_104027 phases=3 bus1=BT246601.1.2.4 bus2=UC104027.1.2.4 linecode=83_3 length=0.013 units=km
New Line.RBT_104028 phases=3 bus1=BT246621.1.2.4 bus2=UC104028.1.2.4 linecode=83_3 length=0.011 units=km
New Line.RBT_103977 phases=2 bus1=BT244681.2.4 bus2=UC103977.2.4 linecode=105_2 length=0.015 units=km
New Line.RBT_128888 phases=2 bus1=BT245591.1.4 bus2=UC128888.1.4 linecode=50_2 length=0.016 units=km
New Line.RBT_104024 phases=2 bus1=BT245591.1.4 bus2=UC104024.1.4 linecode=50_2 length=0.003 units=km
New Line.RBT_104026 phases=2 bus1=BT245721.1.4 bus2=UC104026.1.4 linecode=50_2 length=0.02261 units=km
New Line.RBT_104022 phases=3 bus1=BT245661.1.2.4 bus2=UC104022.1.2.4 linecode=83_3 length=0.016 units=km
New Line.RBT_2207539 phases=2 bus1=BT245691.2.4 bus2=UC2207539.2.4 linecode=50_2 length=0.01 units=km
New Line.RBT_1705074 phases=2 bus1=BT271781.1.4 bus2=UC1705074.1.4 linecode=50_2 length=0.019 units=km
New Line.RBT_1704703 phases=2 bus1=BT285511.2.4 bus2=UC1704703.2.4 linecode=105_2 length=0.012 units=km
New Line.RBT_1704704 phases=2 bus1=BT285591.1.4 bus2=UC1704704.1.4 linecode=50_2 length=0.001 units=km
New Line.RBT_1704705 phases=2 bus1=BT285581.1.4 bus2=UC1704705.1.4 linecode=50_2 length=0.011 units=km
New Line.RBT_1734099 phases=2 bus1=BT285511.2.4 bus2=UC1734099.2.4 linecode=50_2 length=0.03 units=km
New Line.RBT_1804700 phases=2 bus1=BT285441.1.4 bus2=UC1804700.1.4 linecode=105_2 length=0.03 units=km
New Line.RBT_1736378 phases=3 bus1=BT269981.1.2.4 bus2=UC1736378.1.2.4 linecode=83_3 length=0.03 units=km
New Line.RBT_1701670 phases=2 bus1=BT269981.1.4 bus2=UC1701670.1.4 linecode=50_2 length=0.002 units=km
New Line.RBT_1701671 phases=2 bus1=BT584621.1.4 bus2=UC1701671.1.4 linecode=50_2 length=0.016 units=km
New Line.RBT_1701674 phases=2 bus1=BT265591.2.4 bus2=UC1701674.2.4 linecode=50_2 length=0.00699 units=km
New Line.RBT_1701667 phases=2 bus1=BT251811.2.4 bus2=UC1701667.2.4 linecode=50_2 length=0.026 units=km
New Line.RBT_1704942 phases=2 bus1=BT251881.1.4 bus2=UC1704942.1.4 linecode=108_2 length=0.01 units=km
New Line.RBT_1701659 phases=2 bus1=BT478901.2.4 bus2=UC1701659.2.4 linecode=50_2 length=0.01351 units=km
New Line.RBT_1701660 phases=3 bus1=BT282701.1.2.4 bus2=UC1701660.1.2.4 linecode=83_3 length=0.01188 units=km
New Line.RBT_1704709 phases=2 bus1=ET17_1115.1.4 bus2=UC1704709.1.4 linecode=108_2 length=0.03 units=km
New Line.RBT_1704710 phases=2 bus1=BT272721.1.4 bus2=UC1704710.1.4 linecode=50_2 length=0.023 units=km
New Line.RBT_1704675 phases=4 bus1=ET17_1283.1.2.3.4 bus2=UC1704675.1.2.3.4 linecode=51_4 length=0.025 units=km
New Line.RBT_1729596 phases=4 bus1=ET17_1283.1.2.3.4 bus2=UC1729596.1.2.3.4 linecode=123_P_4 length=0.028 units=km
New Line.RBT_1730462 phases=4 bus1=BT261581.1.2.3.4 bus2=UC1730462.1.2.3.4 linecode=51_4 length=0.018 units=km
New Line.RBT_1726791 phases=2 bus1=BT376361.1.4 bus2=UC1726791.1.4 linecode=50_2 length=0.003 units=km
New Line.RBT_1723901 phases=2 bus1=ET17_1590.1.4 bus2=UC1723901.1.4 linecode=50_2 length=0.01381 units=km
New Line.RBT_1728814 phases=3 bus1=BT272672.1.2.4 bus2=UC1728814.1.2.4 linecode=83_3 length=0.024 units=km
New Line.RBT_1704708 phases=2 bus1=BT272672.1.4 bus2=UC1704708.1.4 linecode=50_2 length=0.024 units=km
New Line.RBT_1704747 phases=2 bus1=BT278971.2.4 bus2=UC1704747.2.4 linecode=50_2 length=0.008 units=km
New Line.RBT_1704748 phases=2 bus1=BT279001.1.4 bus2=UC1704748.1.4 linecode=50_2 length=0.019 units=km
New Line.RBT_1704749 phases=2 bus1=BT278941.2.4 bus2=UC1704749.2.4 linecode=108_2 length=0.007 units=km
New Line.RBT_1704944 phases=2 bus1=BT270931.1.4 bus2=UC1704944.1.4 linecode=105_2 length=0.03 units=km
New Line.RBT_1705104 phases=2 bus1=BT270971.2.4 bus2=UC1705104.2.4 linecode=50_2 length=0.02161 units=km
New Line.RBT_1721805 phases=2 bus1=BT270931.1.4 bus2=UC1721805.1.4 linecode=50_2 length=0.0278 units=km
New Line.RBT_1726291 phases=2 bus1=BT270971.2.4 bus2=UC1726291.2.4 linecode=50_2 length=0.02633 units=km
New Line.RBT_1719270 phases=2 bus1=ET17_1714.2.4 bus2=UC1719270.2.4 linecode=105_2 length=0.026 units=km
New Line.RBT_1716295 phases=2 bus1=ET17_1714.2.4 bus2=UC1716295.2.4 linecode=105_2 length=0.022 units=km
New Line.RBT_1701655 phases=2 bus1=BT283551.2.4 bus2=UC1701655.2.4 linecode=50_2 length=0.02936 units=km
New Line.RBT_1736114 phases=4 bus1=BT748911.1.2.3.4 bus2=UC1736114.1.2.3.4 linecode=141_4 length=0.014 units=km
New Line.RBT_1733960 phases=4 bus1=ET17_1823.1.2.3.4 bus2=UC1733960.1.2.3.4 linecode=51_4 length=0.02991 units=km
New Line.RBT_1726790 phases=2 bus1=ET17_1823.1.4 bus2=UC1726790.1.4 linecode=50_2 length=0.01748 units=km
New Line.RBT_1704678 phases=2 bus1=BT243191.2.4 bus2=UC1704678.2.4 linecode=50_2 length=0.022 units=km
New Line.RBT_1704682 phases=3 bus1=BT243201.1.2.4 bus2=UC1704682.1.2.4 linecode=110_3 length=0.01419 units=km
New Line.RBT_1739094 phases=2 bus1=BT243191.1.4 bus2=UC1739094.1.4 linecode=105_2 length=0.01573 units=km
New Line.RBT_1738841 phases=2 bus1=ET17_2014.3.4 bus2=UC1738841.3.4 linecode=105_2 length=0.03 units=km
New Line.RBT_1704671 phases=2 bus1=BT261891.1.4 bus2=UC1704671.1.4 linecode=50_2 length=0.017 units=km
New Line.RBT_1704672 phases=2 bus1=BT261931.2.4 bus2=UC1704672.2.4 linecode=50_2 length=0.005 units=km
New Line.RBT_1735002 phases=2 bus1=ET17_2128.1.4 bus2=UC1735002.1.4 linecode=50_2 length=0.01322 units=km
New Line.RBT_1721821 phases=2 bus1=BT309591.1.4 bus2=UC1721821.1.4 linecode=50_2 length=0.005 units=km
New Line.RBT_1720073 phases=2 bus1=BT360971.2.4 bus2=UC1720073.2.4 linecode=50_2 length=0.012 units=km
New Line.RBT_1729290 phases=2 bus1=ET17_2462.2.4 bus2=UC1729290.2.4 linecode=108_2 length=0.012 units=km
New Line.RBT_1729013 phases=2 bus1=BT639451.2.4 bus2=UC1729013.2.4 linecode=50_2 length=0.016 units=km
New Line.RBT_1728728 phases=2 bus1=ET17_2504.1.4 bus2=UC1728728.1.4 linecode=108_2 length=0.004 units=km
New Line.RBT_1731217 phases=2 bus1=BT281021.2.4 bus2=UC1731217.2.4 linecode=50_2 length=0.02466 units=km
New Line.RBT_1735123 phases=2 bus1=BT268471.1.4 bus2=UC1735123.1.4 linecode=50_2 length=0.0132 units=km
New Line.RBT_1735225 phases=2 bus1=BT508861.2.4 bus2=UC1735225.2.4 linecode=50_2 length=0.01607 units=km
New Line.RBT_1734626 phases=2 bus1=BT281062.1.4 bus2=UC1734626.1.4 linecode=50_2 length=0.01447 units=km
New Line.RBT_1736116 phases=2 bus1=BT281021.2.4 bus2=UC1736116.2.4 linecode=105_2 length=0.01 units=km
New Line.RBT_1736582 phases=2 bus1=BT290281.1.4 bus2=UC1736582.1.4 linecode=105_2 length=0.005 units=km
New Line.RBT_1732374 phases=2 bus1=BT281051.2.4 bus2=UC1732374.2.4 linecode=105_2 length=0.002 units=km
New Line.RBT_1720185 phases=2 bus1=BT296651.2.4 bus2=UC1720185.2.4 linecode=50_2 length=0.024 units=km
New Line.RBT_1719268 phases=2 bus1=BT290281.1.4 bus2=UC1719268.1.4 linecode=50_2 length=0.004 units=km
New Line.RBT_1717347 phases=2 bus1=BT281021.1.4 bus2=UC1717347.1.4 linecode=105_2 length=0.03 units=km
New Line.RBT_1719285 phases=2 bus1=BT344101.1.4 bus2=UC1719285.1.4 linecode=108_2 length=0.005 units=km
New Line.RBT_1703298 phases=2 bus1=ET17_2504.2.4 bus2=UC1703298.2.4 linecode=50_2 length=0.022 units=km
New Line.RBT_1739262 phases=2 bus1=BT281021.2.4 bus2=UC1739262.2.4 linecode=105_2 length=0.03 units=km
New Line.RBT_1738045 phases=2 bus1=BT281021.1.4 bus2=UC1738045.1.4 linecode=105_2 length=0.03 units=km
New Line.RBT_1704660 phases=2 bus1=ET17_26.1.4 bus2=UC1704660.1.4 linecode=108_2 length=0.015 units=km
New Line.RBT_1736710 phases=2 bus1=BT785212.2.4 bus2=UC1736710.2.4 linecode=105_2 length=0.022 units=km
New Line.RBT_1734628 phases=2 bus1=BT269971.1.4 bus2=UC1734628.1.4 linecode=50_2 length=0.00922 units=km
New Line.RBT_1727538 phases=2 bus1=BT269971.1.4 bus2=UC1727538.1.4 linecode=50_2 length=0.03 units=km
New Line.RBT_1722417 phases=2 bus1=BT269971.2.4 bus2=UC1722417.2.4 linecode=105_2 length=0.025 units=km
New Line.RBT_1716243 phases=2 bus1=BT269971.2.4 bus2=UC1716243.2.4 linecode=105_2 length=0.022 units=km
New Line.RBT_1738032 phases=2 bus1=BT587341.1.4 bus2=UC1738032.1.4 linecode=105_2 length=0.018 units=km
New Line.RBT_1738297 phases=2 bus1=BT587341.1.4 bus2=UC1738297.1.4 linecode=105_2 length=0.005 units=km
New Line.RBT_1701646 phases=2 bus1=ET17_2624.2.4 bus2=UC1701646.2.4 linecode=50_2 length=0.02979 units=km
New Line.RBT_1723598 phases=2 bus1=BT284611.2.4 bus2=UC1723598.2.4 linecode=105_2 length=0.03 units=km
New Line.RBT_1723253 phases=4 bus1=ET17_27.1.2.3.4 bus2=UC1723253.1.2.3.4 linecode=51_4 length=0.016 units=km
New Line.RBT_1724817 phases=4 bus1=BT630381.1.2.3.4 bus2=UC1724817.1.2.3.4 linecode=51_4 length=0.009 units=km
New Line.RBT_1726287 phases=4 bus1=BT785591.1.2.3.4 bus2=UC1726287.1.2.3.4 linecode=51_4 length=0.022 units=km
New Line.RBT_1733988 phases=2 bus1=BT637702.2.4 bus2=UC1733988.2.4 linecode=50_2 length=0.0129 units=km
New Line.RBT_1704674 phases=4 bus1=BT630381.1.2.3.4 bus2=UC1704674.1.2.3.4 linecode=51_4 length=0.03 units=km
New Line.RBT_1704666 phases=2 bus1=BT261782.1.4 bus2=UC1704666.1.4 linecode=108_2 length=0.008 units=km
New Line.RBT_1722235 phases=2 bus1=BT793901.1.4 bus2=UC1722235.1.4 linecode=50_2 length=0.03 units=km
New Line.RBT_1705058 phases=4 bus1=BT637702.1.2.3.4 bus2=UC1705058.1.2.3.4 linecode=51_4 length=0.006 units=km
New Line.RBT_1704777 phases=4 bus1=ET17_2778.1.2.3.4 bus2=UC1704777.1.2.3.4 linecode=109_4 length=0.012 units=km
New Line.RBT_1720188 phases=2 bus1=BT280191.2.4 bus2=UC1720188.2.4 linecode=108_2 length=0.027 units=km
New Line.RBT_1732063 phases=2 bus1=ET17_2778.1.4 bus2=UC1732063.1.4 linecode=50_2 length=0.01472 units=km
New Line.RBT_1733010 phases=2 bus1=BT280131.2.4 bus2=UC1733010.2.4 linecode=50_2 length=0.03 units=km
New Line.RBT_1728320 phases=2 bus1=BT634271.1.4 bus2=UC1728320.1.4 linecode=50_2 length=0.021 units=km
New Line.RBT_1717348 phases=2 bus1=BT346111.1.4 bus2=UC1717348.1.4 linecode=50_2 length=0.005 units=km
New Line.RBT_2206576 phases=2 bus1=BT276521.2.4 bus2=UC2206576.2.4 linecode=50_2 length=0.006 units=km
New Line.RBT_1704711 phases=2 bus1=BT720281.1.4 bus2=UC1704711.1.4 linecode=105_2 length=0.03 units=km
New Line.RBT_1704712 phases=2 bus1=BT249081.2.4 bus2=UC1704712.2.4 linecode=50_2 length=0.0221 units=km
New Line.RBT_1732286 phases=2 bus1=BT720251.1.4 bus2=UC1732286.1.4 linecode=50_2 length=0.02331 units=km
New Line.RBT_1734834 phases=4 bus1=BT682081.1.2.3.4 bus2=UC1734834.1.2.3.4 linecode=51_4 length=0.016 units=km
New Line.RBT_2227016 phases=2 bus1=BT685051.1.4 bus2=UC2227016.1.4 linecode=105_2 length=0.023 units=km
New Line.RBT_2223044 phases=2 bus1=BT247641.1.4 bus2=UC2223044.1.4 linecode=50_2 length=0.008 units=km
New Line.RBT_1723862 phases=2 bus1=BT282011.1.4 bus2=UC1723862.1.4 linecode=50_2 length=0.00438 units=km
New Line.RBT_1739081 phases=2 bus1=BT816851.1.4 bus2=UC1739081.1.4 linecode=105_2 length=0.015 units=km
New Line.RBT_1731554 phases=3 bus1=ET17_2948.1.2.4 bus2=UC1731554.1.2.4 linecode=83_3 length=0.02634 units=km
New Line.RBT_1734372 phases=2 bus1=ET17_2948.1.4 bus2=UC1734372.1.4 linecode=50_2 length=0.013 units=km
New Line.RBT_1734374 phases=3 bus1=ET17_2948.1.2.4 bus2=UC1734374.1.2.4 linecode=83_3 length=0.02625 units=km
New Line.RBT_1734431 phases=2 bus1=BT742761.1.4 bus2=UC1734431.1.4 linecode=105_2 length=0.01 units=km
New Line.RBT_1704727 phases=2 bus1=ET17_2948.2.4 bus2=UC1704727.2.4 linecode=105_2 length=0.025 units=km
New Line.RBT_1704728 phases=2 bus1=BT689061.1.4 bus2=UC1704728.1.4 linecode=105_2 length=0.009 units=km
New Line.RBT_1704725 phases=2 bus1=BT582131.1.4 bus2=UC1704725.1.4 linecode=50_2 length=0.01 units=km
New Line.RBT_1704726 phases=2 bus1=BT477151.1.4 bus2=UC1704726.1.4 linecode=50_2 length=0.006 units=km
New Line.RBT_1719291 phases=2 bus1=BT357971.1.4 bus2=UC1719291.1.4 linecode=105_2 length=0.017 units=km
New Line.RBT_1720392 phases=2 bus1=BT342781.1.4 bus2=UC1720392.1.4 linecode=108_2 length=0.016 units=km
New Line.RBT_1732068 phases=2 bus1=BT477151.1.4 bus2=UC1732068.1.4 linecode=50_2 length=0.02962 units=km
New Line.RBT_1735845 phases=2 bus1=BT342781.1.4 bus2=UC1735845.1.4 linecode=105_2 length=0.02 units=km
New Line.RBT_1730616 phases=2 bus1=BT477151.1.4 bus2=UC1730616.1.4 linecode=105_2 length=0.011 units=km
New Line.RBT_1729945 phases=2 bus1=BT357971.1.4 bus2=UC1729945.1.4 linecode=50_2 length=0.0168 units=km
New Line.RBT_1730111 phases=2 bus1=BT357971.1.4 bus2=UC1730111.1.4 linecode=50_2 length=0.019 units=km
New Line.RBT_1730231 phases=3 bus1=ET17_3292.1.2.4 bus2=UC1730231.1.2.4 linecode=83_3 length=0.03 units=km
New Line.RBT_1730324 phases=2 bus1=ET17_3292.1.4 bus2=UC1730324.1.4 linecode=105_2 length=0.012 units=km
New Line.RBT_1721279 phases=2 bus1=ET17_3292.2.4 bus2=UC1721279.2.4 linecode=105_2 length=0.03 units=km
New Line.RBT_1725487 phases=4 bus1=BT643571.1.2.3.4 bus2=UC1725487.1.2.3.4 linecode=51_4 length=0.007 units=km
New Line.RBT_1728094 phases=2 bus1=BT632181.1.4 bus2=UC1728094.1.4 linecode=105_2 length=0.03 units=km
New Line.RBT_1704734 phases=2 bus1=BT299811.2.4 bus2=UC1704734.2.4 linecode=105_2 length=0.02 units=km
New Line.RBT_1704735 phases=2 bus1=ET17_3292.2.4 bus2=UC1704735.2.4 linecode=105_2 length=0.027 units=km
New Line.RBT_1738148 phases=4 bus1=ET17_3292.1.2.3.4 bus2=UC1738148.1.2.3.4 linecode=51_4 length=0.013 units=km
New Line.RBT_1704855 phases=4 bus1=ET17_3337.1.2.3.4 bus2=UC1704855.1.2.3.4 linecode=51_4 length=0.02452 units=km
New Line.RBT_1734574 phases=2 bus1=BT677321.1.4 bus2=UC1734574.1.4 linecode=50_2 length=0.00933 units=km
New Line.RBT_1713685 phases=2 bus1=ET17_3410.1.4 bus2=UC1713685.1.4 linecode=50_2 length=0.00981 units=km
New Line.RBT_1704856 phases=4 bus1=BT622491.1.2.3.4 bus2=UC1704856.1.2.3.4 linecode=51_4 length=0.027 units=km
New Line.RBT_1704857 phases=4 bus1=ET17_3448.1.2.3.4 bus2=UC1704857.1.2.3.4 linecode=51_4 length=0.03 units=km
New Line.RBT_1737972 phases=4 bus1=BT596251.1.2.3.4 bus2=UC1737972.1.2.3.4 linecode=51_4 length=0.028 units=km
New Line.RBT_1727816 phases=4 bus1=ET17_3466.1.2.3.4 bus2=UC1727816.1.2.3.4 linecode=51_4 length=0.02844 units=km
New Line.RBT_1724815 phases=2 bus1=ET17_3467.1.4 bus2=UC1724815.1.4 linecode=50_2 length=0.002 units=km
New Line.RBT_1726587 phases=4 bus1=BT765921.1.2.3.4 bus2=UC1726587.1.2.3.4 linecode=51_4 length=0.03 units=km
New Line.RBT_1736548 phases=2 bus1=ET17_3467.1.4 bus2=UC1736548.1.4 linecode=105_2 length=0.025 units=km
New Line.RBT_1701668 phases=2 bus1=BT270031.2.4 bus2=UC1701668.2.4 linecode=50_2 length=0.001 units=km
New Line.RBT_1701669 phases=2 bus1=BT270011.1.4 bus2=UC1701669.1.4 linecode=50_2 length=0.03 units=km
New Line.RBT_1727014 phases=2 bus1=ET17_3511.1.4 bus2=UC1727014.1.4 linecode=50_2 length=0.00448 units=km
New Line.RBT_1723983 phases=2 bus1=BT259881.3.4 bus2=UC1723983.3.4 linecode=105_2 length=0.011 units=km
New Line.RBT_1728812 phases=4 bus1=BT259871.1.2.3.4 bus2=UC1728812.1.2.3.4 linecode=51_4 length=0.028 units=km
New Line.RBT_1704736 phases=4 bus1=BT762411.1.2.3.4 bus2=UC1704736.1.2.3.4 linecode=51_4 length=0.011 units=km
New Line.RBT_1704737 phases=4 bus1=BT762401.1.2.3.4 bus2=UC1704737.1.2.3.4 linecode=51_4 length=0.02 units=km
New Line.RBT_1704738 phases=2 bus1=BT762391.3.4 bus2=UC1704738.3.4 linecode=105_2 length=0.014 units=km
New Line.RBT_1704847 phases=4 bus1=BT633161.1.2.3.4 bus2=UC1704847.1.2.3.4 linecode=51_4 length=0.021 units=km
New Line.RBT_1704848 phases=4 bus1=BT259842.1.2.3.4 bus2=UC1704848.1.2.3.4 linecode=51_4 length=0.014 units=km
New Line.RBT_1704849 phases=4 bus1=BT259842.1.2.3.4 bus2=UC1704849.1.2.3.4 linecode=51_4 length=0.028 units=km
New Line.RBT_1704850 phases=3 bus1=ET17_36.2.3.4 bus2=UC1704850.2.3.4 linecode=83_3 length=0.012 units=km
New Line.RBT_1738293 phases=4 bus1=BT762401.1.2.3.4 bus2=UC1738293.1.2.3.4 linecode=123_P_4 length=0.018 units=km
New Line.RBT_1737308 phases=2 bus1=BT506431.1.4 bus2=UC1737308.1.4 linecode=105_2 length=0.01 units=km
New Line.RBT_1726561 phases=3 bus1=ET17_3693.1.2.4 bus2=UC1726561.1.2.4 linecode=83_3 length=0.00961 units=km
New Line.RBT_1725091 phases=2 bus1=BT375871.1.4 bus2=UC1725091.1.4 linecode=50_2 length=0.005 units=km
New Line.RBT_1723259 phases=2 bus1=BT476861.1.4 bus2=UC1723259.1.4 linecode=105_2 length=0.03 units=km
New Line.RBT_1735850 phases=2 bus1=BT764071.1.4 bus2=UC1735850.1.4 linecode=105_2 length=0.011 units=km
New Line.RBT_1732380 phases=4 bus1=BT476901.1.2.3.4 bus2=UC1732380.1.2.3.4 linecode=109_4 length=0.03 units=km
New Line.RBT_1704852 phases=2 bus1=BT232931.1.4 bus2=UC1704852.1.4 linecode=50_2 length=0.01 units=km
New Line.RBT_1704853 phases=4 bus1=ET17_37.1.2.3.4 bus2=UC1704853.1.2.3.4 linecode=51_4 length=0.025 units=km
New Line.RBT_1704854 phases=2 bus1=BT232981.2.4 bus2=UC1704854.2.4 linecode=50_2 length=0.016 units=km
New Line.RBT_1736968 phases=2 bus1=ET17_37.2.4 bus2=UC1736968.2.4 linecode=105_2 length=0.03 units=km
New Line.RBT_1722592 phases=2 bus1=BT619201.1.4 bus2=UC1722592.1.4 linecode=105_2 length=0.013 units=km
New Line.RBT_1728020 phases=2 bus1=BT638581.1.4 bus2=UC1728020.1.4 linecode=50_2 length=0.026 units=km
New Line.RBT_1726171 phases=3 bus1=ET17_3776.1.2.4 bus2=UC1726171.1.2.4 linecode=83_3 length=0.01 units=km
New Line.RBT_1731005 phases=2 bus1=BT280921.2.4 bus2=UC1731005.2.4 linecode=50_2 length=0.02022 units=km
New Line.RBT_1732551 phases=3 bus1=BT280931.1.2.4 bus2=UC1732551.1.2.4 linecode=83_3 length=0.02059 units=km
New Line.RBT_1704762 phases=2 bus1=BT280921.2.4 bus2=UC1704762.2.4 linecode=108_2 length=0.001 units=km
New Line.RBT_2221093 phases=3 bus1=ET17_3876.1.2.4 bus2=UC2221093.1.2.4 linecode=83_3 length=0.007 units=km
New Line.RBT_2206550 phases=2 bus1=BT682291.2.4 bus2=UC2206550.2.4 linecode=50_2 length=0.01823 units=km
New Line.RBT_2234768 phases=4 bus1=ET17_3876.1.2.3.4 bus2=UC2234768.1.2.3.4 linecode=51_4 length=0.01747 units=km
New Line.RBT_2233128 phases=2 bus1=BT682291.2.4 bus2=UC2233128.2.4 linecode=50_2 length=0.01507 units=km
New Line.RBT_2231688 phases=3 bus1=BT421941.1.2.4 bus2=UC2231688.1.2.4 linecode=83_3 length=0.02378 units=km
New Line.RBT_1719281 phases=2 bus1=BT377261.1.4 bus2=UC1719281.1.4 linecode=50_2 length=0.014 units=km
New Line.RBT_1704716 phases=2 bus1=ET17_3929.2.4 bus2=UC1704716.2.4 linecode=108_2 length=0.023 units=km
New Line.RBT_1704717 phases=2 bus1=BT342641.1.4 bus2=UC1704717.1.4 linecode=50_2 length=0.004 units=km
New Line.RBT_1704718 phases=2 bus1=BT232691.1.4 bus2=UC1704718.1.4 linecode=108_2 length=0.018 units=km
New Line.RBT_1734519 phases=2 bus1=BT363371.1.4 bus2=UC1734519.1.4 linecode=50_2 length=0.02695 units=km
New Line.RBT_1729017 phases=2 bus1=ET17_3929.2.4 bus2=UC1729017.2.4 linecode=50_2 length=0.007 units=km
New Line.RBT_1728546 phases=2 bus1=BT634052.2.4 bus2=UC1728546.2.4 linecode=50_2 length=0.009 units=km
New Line.RBT_1728727 phases=2 bus1=BT344421.1.4 bus2=UC1728727.1.4 linecode=50_2 length=0.018 units=km
New Line.RBT_1729691 phases=3 bus1=BT232622.1.2.4 bus2=UC1729691.1.2.4 linecode=83_3 length=0.026 units=km
New Line.RBT_1736459 phases=2 bus1=BT344421.1.4 bus2=UC1736459.1.4 linecode=105_2 length=0.03 units=km
New Line.RBT_1704720 phases=2 bus1=BT791181.2.4 bus2=UC1704720.2.4 linecode=50_2 length=0.005 units=km
New Line.RBT_1721218 phases=2 bus1=BT232611.1.4 bus2=UC1721218.1.4 linecode=50_2 length=0.011 units=km
New Line.RBT_1704757 phases=4 bus1=ET17_4094.1.2.3.4 bus2=UC1704757.1.2.3.4 linecode=51_4 length=0.016 units=km
New Line.RBT_1729793 phases=4 bus1=BT582651.1.2.3.4 bus2=UC1729793.1.2.3.4 linecode=51_4 length=0.015 units=km
New Line.RBT_1730322 phases=2 bus1=BT265541.2.4 bus2=UC1730322.2.4 linecode=50_2 length=0.03 units=km
New Line.RBT_1734623 phases=2 bus1=ET17_4114.2.4 bus2=UC1734623.2.4 linecode=50_2 length=0.0113 units=km
...
